11051586
  -OEChem-10162119173D

 15 14  0     1  0  0  0  0  0999 V2000
    0.6953   -1.2151   -0.8300 O   0  0  0  0  0  0  0  0  0  0  0  0
   -1.8823   -1.0443    0.1044 O   0  0  0  0  0  0  0  0  0  0  0  0
   -0.1968    0.6889    0.3565 C   0  0  2  0  0  0  0  0  0  0  0  0
   -0.1459    1.8718   -0.6023 C   0  0  0  0  0  0  0  0  0  0  0  0
    0.8881   -0.3080   -0.0205 C   0  0  0  0  0  0  0  0  0  0  0  0
    2.2408   -0.1115    0.6147 C   0  0  0  0  0  0  0  0  0  0  0  0
   -1.5994    0.1181    0.3772 C   0  0  0  0  0  0  0  0  0  0  0  0
   -0.0001    1.0320    1.3793 H   0  0  0  0  0  0  0  0  0  0  0  0
   -0.8926    2.6273   -0.3352 H   0  0  0  0  0  0  0  0  0  0  0  0
   -0.3498    1.5546   -1.6315 H   0  0  0  0  0  0  0  0  0  0  0  0
    0.8391    2.3499   -0.5914 H   0  0  0  0  0  0  0  0  0  0  0  0
    2.1464   -0.1636    1.7022 H   0  0  0  0  0  0  0  0  0  0  0  0
    2.6533    0.8553    0.3172 H   0  0  0  0  0  0  0  0  0  0  0  0
    2.9203   -0.9024    0.2847 H   0  0  0  0  0  0  0  0  0  0  0  0
   -2.3905    0.8247    0.6840 H   0  0  0  0  0  0  0  0  0  0  0  0
  1  5  2  0  0  0  0
  2  7  2  0  0  0  0
  3  4  1  0  0  0  0
  3  5  1  0  0  0  0
  3  7  1  0  0  0  0
  3  8  1  0  0  0  0
  4  9  1  0  0  0  0
  4 10  1  0  0  0  0
  4 11  1  0  0  0  0
  5  6  1  0  0  0  0
  6 12  1  0  0  0  0
  6 13  1  0  0  0  0
  6 14  1  0  0  0  0
  7 15  1  0  0  0  0
M  END
> <PUBCHEM_COMPOUND_CID>
11051586

> <PUBCHEM_CONFORMER_RMSD>
0.4

> <PUBCHEM_CONFORMER_DIVERSEORDER>
1
15
18
8
4
5
9
17
7
12
14
11
2
3
6
16
13
10

> <PUBCHEM_MMFF94_PARTIAL_CHARGES>
7
1 -0.57
15 0.06
2 -0.57
3 0.12
5 0.45
6 0.06
7 0.45

> <PUBCHEM_EFFECTIVE_ROTOR_COUNT>
2

> <PUBCHEM_PHARMACOPHORE_FEATURES>
4
1 1 acceptor
1 2 acceptor
1 3 anion
1 4 hydrophobe

> <PUBCHEM_HEAVY_ATOM_COUNT>
7

> <PUBCHEM_ATOM_DEF_STEREO_COUNT>
0

> <PUBCHEM_ATOM_UDEF_STEREO_COUNT>
1

> <PUBCHEM_BOND_DEF_STEREO_COUNT>
0

> <PUBCHEM_BOND_UDEF_STEREO_COUNT>
0

> <PUBCHEM_ISOTOPIC_ATOM_COUNT>
0

> <PUBCHEM_COMPONENT_COUNT>
1

> <PUBCHEM_CACTVS_TAUTO_COUNT>
5

> <PUBCHEM_CONFORMER_ID>
00A8A24200000001

> <PUBCHEM_MMFF94_ENERGY>
6.6782

> <PUBCHEM_FEATURE_SELFOVERLAP>
20.302

> <PUBCHEM_SHAPE_FINGERPRINT>
137420 1 15044681104019388941
16714656 1 18342459278882152068
20711978 78 16843604860046174430
21040471 1 17469324734027911028
23552449 1 18262225608885034796
24536 1 17485637157388616664
29004967 10 18334864934567513395
5943 1 13010764139467489688

> <PUBCHEM_SHAPE_MULTIPOLES>
132.32
2.35
1.5
0.82
0.46
0.58
-0.04
-0.65
0.52
-0.36
-0.38
0.13
-0.01
0.14

> <PUBCHEM_SHAPE_SELFOVERLAP>
243.682

> <PUBCHEM_SHAPE_VOLUME>
83.8

> <PUBCHEM_COORDINATE_TYPE>
2
5
10

$$$$
