522708
  -OEChem-10162117423D

 11 10  0     0  0  0  0  0  0999 V2000
    0.0699   -0.8239    0.1164 C   0  0  0  0  0  0  0  0  0  0  0  0
    1.1665    0.0317   -0.4397 C   0  0  0  0  0  0  0  0  0  0  0  0
    2.2344    0.4282    0.2623 C   0  0  0  0  0  0  0  0  0  0  0  0
   -1.2102   -0.1080    0.0540 C   0  0  0  0  0  0  0  0  0  0  0  0
   -2.2606    0.4720    0.0071 C   0  0  0  0  0  0  0  0  0  0  0  0
    0.0099   -1.7474   -0.4704 H   0  0  0  0  0  0  0  0  0  0  0  0
    0.2810   -1.1162    1.1515 H   0  0  0  0  0  0  0  0  0  0  0  0
    1.0944    0.3289   -1.4834 H   0  0  0  0  0  0  0  0  0  0  0  0
    3.0003    1.0400   -0.2019 H   0  0  0  0  0  0  0  0  0  0  0  0
    2.3635    0.1536    1.3032 H   0  0  0  0  0  0  0  0  0  0  0  0
   -3.1921    0.9865   -0.0346 H   0  0  0  0  0  0  0  0  0  0  0  0
  1  2  1  0  0  0  0
  1  4  1  0  0  0  0
  1  6  1  0  0  0  0
  1  7  1  0  0  0  0
  2  3  2  0  0  0  0
  2  8  1  0  0  0  0
  3  9  1  0  0  0  0
  3 10  1  0  0  0  0
  4  5  3  0  0  0  0
  5 11  1  0  0  0  0
M  END
> <PUBCHEM_COMPOUND_CID>
522708

> <PUBCHEM_CONFORMER_RMSD>
0.4

> <PUBCHEM_CONFORMER_DIVERSEORDER>
1
2

> <PUBCHEM_MMFF94_PARTIAL_CHARGES>
9
1 0.34
10 0.15
11 0.18
2 -0.29
3 -0.3
4 -0.2
5 -0.18
8 0.15
9 0.15

> <PUBCHEM_EFFECTIVE_ROTOR_COUNT>
1

> <PUBCHEM_PHARMACOPHORE_FEATURES>
2
1 3 hydrophobe
1 5 hydrophobe

> <PUBCHEM_HEAVY_ATOM_COUNT>
5

> <PUBCHEM_ATOM_DEF_STEREO_COUNT>
0

> <PUBCHEM_ATOM_UDEF_STEREO_COUNT>
0

> <PUBCHEM_BOND_DEF_STEREO_COUNT>
0

> <PUBCHEM_BOND_UDEF_STEREO_COUNT>
0

> <PUBCHEM_ISOTOPIC_ATOM_COUNT>
0

> <PUBCHEM_COMPONENT_COUNT>
1

> <PUBCHEM_CACTVS_TAUTO_COUNT>
1

> <PUBCHEM_CONFORMER_ID>
0007F9D400000001

> <PUBCHEM_MMFF94_ENERGY>
0.5336

> <PUBCHEM_FEATURE_SELFOVERLAP>
10.149

> <PUBCHEM_SHAPE_FINGERPRINT>
139733 1 18409451388095655599
14390081 3 18202561769907627801
20096714 4 18410576197070190572
21040471 1 18335707147552681334
5460574 1 9223235143372712909

> <PUBCHEM_SHAPE_MULTIPOLES>
102.9
3.2
0.84
0.67
0.12
0.08
-0.01
-0.89
0.17
0.01
0.03
-0.08
0
0.05

> <PUBCHEM_SHAPE_SELFOVERLAP>
180.767

> <PUBCHEM_SHAPE_VOLUME>
67

> <PUBCHEM_COORDINATE_TYPE>
2
5
10

$$$$
