12408078
  -OEChem-10172104193D

 11 10  0     0  0  0  0  0  0999 V2000
   -1.8672   -0.0761   -0.0002 N   0  0  0  0  0  0  0  0  0  0  0  0
    0.5288   -0.4110    0.0001 C   0  0  0  0  0  0  0  0  0  0  0  0
    1.9149    0.1429   -0.0002 C   0  0  0  0  0  0  0  0  0  0  0  0
   -0.5765    0.3442    0.0002 C   0  0  0  0  0  0  0  0  0  0  0  0
    0.4347   -1.4940    0.0000 H   0  0  0  0  0  0  0  0  0  0  0  0
    2.4544   -0.2028    0.8868 H   0  0  0  0  0  0  0  0  0  0  0  0
    2.4540   -0.2028   -0.8874 H   0  0  0  0  0  0  0  0  0  0  0  0
    1.9241    1.2375   -0.0002 H   0  0  0  0  0  0  0  0  0  0  0  0
   -0.5083    1.4267    0.0002 H   0  0  0  0  0  0  0  0  0  0  0  0
   -2.0782   -1.0661   -0.0010 H   0  0  0  0  0  0  0  0  0  0  0  0
   -2.6160    0.6048   -0.0009 H   0  0  0  0  0  0  0  0  0  0  0  0
  1  4  1  0  0  0  0
  1 10  1  0  0  0  0
  1 11  1  0  0  0  0
  2  3  1  0  0  0  0
  2  4  2  0  0  0  0
  2  5  1  0  0  0  0
  3  6  1  0  0  0  0
  3  7  1  0  0  0  0
  3  8  1  0  0  0  0
  4  9  1  0  0  0  0
M  END
> <PUBCHEM_COMPOUND_CID>
12408078

> <PUBCHEM_CONFORMER_RMSD>
0.4

> <PUBCHEM_CONFORMER_DIVERSEORDER>
1

> <PUBCHEM_MMFF94_PARTIAL_CHARGES>
8
1 -0.9
10 0.4
11 0.4
2 -0.29
3 0.14
4 -0.05
5 0.15
9 0.15

> <PUBCHEM_EFFECTIVE_ROTOR_COUNT>
0

> <PUBCHEM_PHARMACOPHORE_FEATURES>
3
1 1 cation
1 1 donor
1 3 hydrophobe

> <PUBCHEM_HEAVY_ATOM_COUNT>
4

> <PUBCHEM_ATOM_DEF_STEREO_COUNT>
0

> <PUBCHEM_ATOM_UDEF_STEREO_COUNT>
0

> <PUBCHEM_BOND_DEF_STEREO_COUNT>
1

> <PUBCHEM_BOND_UDEF_STEREO_COUNT>
0

> <PUBCHEM_ISOTOPIC_ATOM_COUNT>
0

> <PUBCHEM_COMPONENT_COUNT>
1

> <PUBCHEM_CACTVS_TAUTO_COUNT>
2

> <PUBCHEM_CONFORMER_ID>
00BD550E00000001

> <PUBCHEM_MMFF94_ENERGY>
3.072

> <PUBCHEM_FEATURE_SELFOVERLAP>
15.223

> <PUBCHEM_SHAPE_FINGERPRINT>
139733 1 9223230749663393089
20096714 4 18341049704843675792
21015797 1 9150014266074789506
5460574 1 9295291637951754080

> <PUBCHEM_SHAPE_MULTIPOLES>
77.34
2.42
0.68
0.6
0.01
0
0
-0.08
0
0.05
0
0.04
0
0

> <PUBCHEM_SHAPE_SELFOVERLAP>
129.497

> <PUBCHEM_SHAPE_VOLUME>
53

> <PUBCHEM_COORDINATE_TYPE>
2
5
10

$$$$
